L6/1726525/Vaos.dss
! ==========================================================
! VAOS DE SAIDA — barra de MT da SE -> cabeceira do alimentador
! Derivado de CTMT.BARR e CTMT.UNI_TR_AT: a BDGD nao modela o
! arranjo interno da subestacao, so o vinculo logico.
! Cada vao e o disjuntor de saida do alimentador.
! ==========================================================
New Line.VAO_AETD14 phases=3 Bus1=192976850.1.2.3 Bus2=segm_2675417051.1.2.3 Switch=y r1=0.0001 r0=0.0001 x1=0 x0=0 c1=0 c0=0
New Monitor.M_AETD14 element=Line.VAO_AETD14 terminal=1 mode=1 ppolar=no
New Line.VAO_AETD15 phases=3 Bus1=192976850.1.2.3 Bus2=segm_2675417044.1.2.3 Switch=y r1=0.0001 r0=0.0001 x1=0 x0=0 c1=0 c0=0
New Monitor.M_AETD15 element=Line.VAO_AETD15 terminal=1 mode=1 ppolar=no
New Line.VAO_AETD16 phases=3 Bus1=192976850.1.2.3 Bus2=segm_2675417037.1.2.3 Switch=y r1=0.0001 r0=0.0001 x1=0 x0=0 c1=0 c0=0
New Monitor.M_AETD16 element=Line.VAO_AETD16 terminal=1 mode=1 ppolar=no
